CENÁRIO_01/Resultados 01/SE_Curr_Elem_01.Txt

CIRCUIT ELEMENT CURRENTS

(Currents into element from indicated bus)

Power Delivery Elements

  Bus     Phase    Magnitude, A     Angle      (Real)   +j  (Imag)

ELEMENT = "Vsource.SOURCE"
99            1           61.066 /_   91.4 =    -1.4588 +j    61.049
99            2           61.066 /_  -28.6 =     53.599 +j   -29.261
99            3           61.066 /_ -148.6 =     -52.14 +j   -31.788
------------
99            0           61.066 /_  -88.6 =     1.4588 +j   -61.049
99            0           61.066 /_  151.4 =    -53.599 +j    29.261
99            0           61.066 /_   31.4 =      52.14 +j    31.788

ELEMENT = "Line.TRECHO_99-1"
99            1           61.066 /_  -88.6 =     1.4588 +j   -61.049
99            2           61.066 /_  151.4 =    -53.599 +j    29.261
99            3           61.066 /_   31.4 =      52.14 +j    31.788
------------
1             1           61.066 /_   91.4 =    -1.4588 +j    61.049
1             2           61.066 /_  -28.6 =     53.599 +j   -29.261
1             3           61.066 /_ -148.6 =     -52.14 +j   -31.788

ELEMENT = "Line.TRECHO_1-2"
1             1             57.8 /_ -134.0 =    -40.187 +j   -41.544
1             2             57.8 /_  106.0 =    -15.885 +j    55.575
1             3             57.8 /_  -14.0 =     56.072 +j    -14.03
------------
2             1             57.8 /_   46.0 =     40.187 +j    41.544
2             2             57.8 /_  -74.0 =     15.885 +j   -55.575
2             3             57.8 /_  166.0 =    -56.072 +j     14.03

ELEMENT = "Line.TRECHO_2-6"
2             1           19.317 /_  -25.1 =     17.496 +j   -8.1868
2             2           19.317 /_ -145.1 =    -15.838 +j   -11.059
2             3           19.317 /_   94.9 =    -1.6581 +j    19.245
------------
6             1           19.317 /_  154.9 =    -17.496 +j    8.1868
6             2           19.317 /_   34.9 =     15.838 +j    11.059
6             3           19.317 /_  -85.1 =     1.6581 +j   -19.245

ELEMENT = "Line.TRECHO_6-7"
6             1           8.2789 /_  -25.1 =     7.4987 +j   -3.5087
6             2           8.2789 /_ -145.1 =     -6.788 +j   -4.7397
6             3           8.2789 /_   94.9 =   -0.71071 +j    8.2484
------------
7             1           8.2789 /_  154.9 =    -7.4987 +j    3.5087
7             2           8.2789 /_   34.9 =      6.788 +j    4.7397
7             3           8.2789 /_  -85.1 =    0.71071 +j   -8.2484

ELEMENT = "Line.TRECHO_1-5"
1             1           27.595 /_  -25.1 =      24.99 +j   -11.704
1             2           27.595 /_ -145.1 =    -22.631 +j    -15.79
1             3           27.595 /_   94.9 =    -2.3594 +j    27.494
------------
5             1           27.595 /_  154.9 =     -24.99 +j    11.704
5             2           27.595 /_   34.9 =     22.631 +j     15.79
5             3           27.595 /_  -85.1 =     2.3594 +j   -27.494

ELEMENT = "Line.TRECHO_2-3"
2             1           78.613 /_ -161.0 =    -74.341 +j   -25.562
2             2           78.613 /_   79.0 =     15.033 +j    77.163
2             3           78.613 /_  -41.0 =     59.308 +j     -51.6
------------
3             1           78.613 /_   19.0 =     74.341 +j    25.562
3             2           78.613 /_ -101.0 =    -15.033 +j   -77.163
3             3           78.613 /_  139.0 =    -59.308 +j      51.6

ELEMENT = "Line.TRECHO_3-4"
3             1           100.29 /_ -172.0 =    -99.329 +j   -13.873
3             2           100.29 /_   68.0 =      37.65 +j    92.958
3             3           100.29 /_  -52.0 =     61.679 +j   -79.085
------------
4             1           100.29 /_    8.0 =     99.329 +j    13.873
4             2           100.29 /_ -112.0 =     -37.65 +j   -92.958
4             3           100.29 /_  128.0 =    -61.679 +j    79.085

ELEMENT = "Transformer.TR1"
1             1           18.391 /_  -25.1 =     16.655 +j   -7.8004
1             2           18.391 /_ -145.1 =    -15.083 +j   -10.524
1             3           18.391 /_   94.9 =    -1.5722 +j    18.324
1             0                0 /_    0.0 =          0 +j         0
------------
BT-TR1        1           667.89 /_  124.9 =    -382.17 +j    547.75
BT-TR1        2           667.89 /_    4.9 =     665.45 +j    57.096
BT-TR1        3           667.89 /_ -115.1 =    -283.28 +j   -604.84
BT-TR1        0      1.3644E-007 /_  -58.5 =  7.1372E-008 +j -1.1628E-007

ELEMENT = "Transformer.TR2"
2             1           18.392 /_  -25.1 =     16.659 +j   -7.7954
2             2           18.392 /_ -145.1 =     -15.08 +j   -10.529
2             3           18.392 /_   94.9 =    -1.5784 +j    18.325
2             0                0 /_    0.0 =          0 +j         0
------------
BT-TR2        1           667.94 /_  124.9 =    -382.38 +j    547.66
BT-TR2        2           667.94 /_    4.9 =     665.47 +j    57.322
BT-TR2        3           667.94 /_ -115.1 =    -283.09 +j   -604.98
BT-TR2        0      1.3651E-007 /_  -58.5 =  7.1426E-008 +j -1.1634E-007

ELEMENT = "Transformer.TR3"
3             1           27.587 /_  -25.1 =     24.988 +j   -11.689
3             2           27.587 /_ -145.1 =    -22.617 +j   -15.796
3             3           27.587 /_   94.9 =    -2.3707 +j    27.485
3             0                0 /_    0.0 =          0 +j         0
------------
BT-TR3        1           1001.8 /_  124.9 =    -573.63 +j    821.36
BT-TR3        2           1001.8 /_    4.9 =     998.13 +j    86.096
BT-TR3        3           1001.8 /_ -115.1 =    -424.51 +j   -907.46
BT-TR3        0      2.0478E-007 /_  -58.4 =  1.0716E-007 +j -1.745E-007

ELEMENT = "Transformer.TR4"
4             1           18.387 /_  -25.1 =     16.657 +j   -7.7876
4             2           18.387 /_ -145.1 =    -15.073 +j   -10.531
4             3           18.387 /_   94.9 =    -1.5841 +j    18.319
4             0                0 /_    0.0 =          0 +j         0
------------
BT-TR4        1           667.75 /_  124.9 =    -382.46 +j    547.37
BT-TR4        2           667.75 /_    4.9 =     665.27 +j     57.53
BT-TR4        3           667.75 /_ -115.1 =    -282.81 +j    -604.9
BT-TR4        0       1.365E-007 /_  -58.4 =  7.1461E-008 +j -1.1629E-007

ELEMENT = "Transformer.TR5"
5             1           27.595 /_  -25.1 =      24.99 +j   -11.704
5             2           27.595 /_ -145.1 =    -22.631 +j    -15.79
5             3           27.595 /_   94.9 =    -2.3594 +j    27.494
5             0                0 /_    0.0 =          0 +j         0
------------
BT-TR5        1           1002.1 /_  124.9 =    -573.44 +j    821.85
BT-TR5        2           1002.1 /_    4.9 =     998.47 +j    85.683
BT-TR5        3           1002.1 /_ -115.1 =    -425.03 +j   -907.54
BT-TR5        0      2.0478E-007 /_  -58.5 =  1.0713E-007 +j -1.7452E-007

ELEMENT = "Transformer.TR6"
6             1           11.038 /_  -25.1 =     9.9974 +j   -4.6781
6             2           11.038 /_ -145.1 =      -9.05 +j   -6.3189
6             3           11.038 /_   94.9 =   -0.94735 +j    10.997
6             0                0 /_    0.0 =          0 +j         0
------------
BT-TR6        1           400.84 /_  124.9 =    -229.48 +j    328.66
BT-TR6        2           400.84 /_    4.9 =     399.37 +j    34.404
BT-TR6        3           400.84 /_ -115.1 =    -169.89 +j   -363.06
BT-TR6        0      8.1942E-008 /_  -58.5 =  4.2874E-008 +j -6.9831E-008

ELEMENT = "Transformer.TR7"
7             1           8.2789 /_  -25.1 =     7.4987 +j   -3.5087
7             2           8.2789 /_ -145.1 =     -6.788 +j   -4.7397
7             3           8.2789 /_   94.9 =   -0.71071 +j    8.2484
7             0                0 /_    0.0 =          0 +j         0
------------
BT-TR7        1           300.66 /_  124.9 =    -172.13 +j    246.51
BT-TR7        2           300.66 /_    4.9 =     299.55 +j     25.81
BT-TR7        3           300.66 /_ -115.1 =    -127.42 +j   -272.32
BT-TR7        0      6.1468E-008 /_  -58.4 =  3.2163E-008 +j -5.2381E-008

ELEMENT = "Transformer.TR_AC1"
TR_ACOPL1     1           4217.9 /_    3.0 =     4212.1 +j    220.99
TR_ACOPL1     2           4217.9 /_ -117.0 =    -1914.7 +j   -3758.3
TR_ACOPL1     3           4217.9 /_  123.0 =    -2297.4 +j    3537.3
TR_ACOPL1     0      8.4411E-007 /_ -118.1 =  -3.9805E-007 +j -7.4437E-007
------------
4             1           116.15 /_ -177.0 =    -115.99 +j   -6.0854
4             2           116.15 /_   63.0 =     52.723 +j    103.49
4             3           116.15 /_  -57.0 =     63.263 +j   -97.404
4             0      2.3244E-008 /_   61.9 =  1.0961E-008 +j 2.0498E-008

= = = = = = = = = = = = = = = = = = =  = = = = = = = = = = =  = =

Power Conversion Elements

  Bus     Phase    Magnitude, A     Angle      (Real)   +j  (Imag)

ELEMENT = "Load.LOAD_TR1"
BT-TR1        1           667.89 /_  -55.1 =     382.16 +j   -547.75
BT-TR1        2           667.89 /_ -175.1 =    -665.44 +j   -57.088
BT-TR1        3           667.89 /_   64.9 =     283.28 +j    604.83
BT-TR1        0      1.3644E-007 /_  121.5 =  -7.137E-008 +j 1.1628E-007

ELEMENT = "Load.LOAD_TR2"
BT-TR2        1           667.93 /_  -55.1 =     382.37 +j   -547.65
BT-TR2        2           667.93 /_ -175.1 =    -665.47 +j   -57.313
BT-TR2        3           667.93 /_   64.9 =      283.1 +j    604.97
BT-TR2        0      1.3651E-007 /_  121.5 =  -7.1422E-008 +j 1.1634E-007

ELEMENT = "Load.LOAD_TR3"
BT-TR3        1           1001.8 /_  -55.1 =     573.61 +j   -821.36
BT-TR3        2           1001.8 /_ -175.1 =    -998.12 +j   -86.083
BT-TR3        3           1001.8 /_   64.9 =     424.51 +j    907.44
BT-TR3        0      2.0477E-007 /_  121.6 =  -1.0715E-007 +j 1.745E-007

ELEMENT = "Load.LOAD_TR4"
BT-TR4        1           667.74 /_  -55.1 =     382.44 +j   -547.37
BT-TR4        2           667.74 /_ -175.1 =    -665.26 +j   -57.521
BT-TR4        3           667.74 /_   64.9 =     282.82 +j    604.89
BT-TR4        0      1.3649E-007 /_  121.6 =  -7.1451E-008 +j 1.163E-007

ELEMENT = "Load.LOAD_TR5"
BT-TR5        1           1002.1 /_  -55.1 =     573.42 +j   -821.85
BT-TR5        2           1002.1 /_ -175.1 =    -998.45 +j    -85.67
BT-TR5        3           1002.1 /_   64.9 =     425.04 +j    907.52
BT-TR5        0      2.0478E-007 /_  121.5 =  -1.0712E-007 +j 1.7452E-007

ELEMENT = "Load.LOAD_TR6"
BT-TR6        1           400.84 /_  -55.1 =     229.47 +j   -328.66
BT-TR6        2           400.84 /_ -175.1 =    -399.36 +j   -34.399
BT-TR6        3           400.84 /_   64.9 =     169.89 +j    363.06
BT-TR6        0      8.1942E-008 /_  121.5 =  -4.2873E-008 +j 6.9831E-008

ELEMENT = "Load.LOAD_TR7"
BT-TR7        1           300.65 /_  -55.1 =     172.12 +j   -246.51
BT-TR7        2           300.65 /_ -175.1 =    -299.54 +j   -25.806
BT-TR7        3           300.65 /_   64.9 =     127.42 +j    272.31
BT-TR7        0      6.1466E-008 /_  121.5 =  -3.2161E-008 +j 5.238E-008

ELEMENT = "PVSystem.SFV_1"
TR_ACOPL1     1           4217.9 /_ -177.0 =    -4212.1 +j   -220.99
TR_ACOPL1     2           4217.9 /_   63.0 =     1914.7 +j    3758.3
TR_ACOPL1     3           4217.9 /_  -57.0 =     2297.4 +j   -3537.3
TR_ACOPL1     0      8.4411E-007 /_   61.9 =  3.9804E-007 +j 7.4437E-007

